1052
  Mrv0541 08241617193D          

 23 23  0  0  0  0            999 V2000
   -2.1694   -0.8311    1.5948 O   0  5  0  0  0  0  0  0  0  0  0  0
    2.7176   -2.5414   -0.3439 O   0  0  0  0  0  0  0  0  0  0  0  0
   -1.5136   -3.9290   -0.2157 N   0  0  0  0  0  0  0  0  0  0  0  0
   -0.0078    0.8706   -0.5212 N   0  0  0  0  0  0  0  0  0  0  0  0
   -0.2878   -1.4465    0.2718 C   0  0  0  0  0  0  0  0  0  0  0  0
    0.3244   -2.4024   -0.5709 C   0  0  0  0  0  0  0  0  0  0  0  0
   -1.5648   -1.6948    0.8641 C   0  0  0  0  0  0  0  0  0  0  0  0
    0.3879   -0.1024    0.5079 C   0  0  0  0  0  0  0  0  0  0  0  0
   -2.1036   -2.9776    0.5653 C   0  0  0  0  0  0  0  0  0  0  0  0
    1.6551   -2.1916   -1.2291 C   0  0  0  0  0  0  0  0  0  0  0  0
   -0.3291   -3.6104   -0.7577 C   0  0  0  0  0  0  0  0  0  0  0  0
   -3.4445   -3.3795    1.1298 C   0  0  0  0  0  0  0  0  0  0  0  0
    0.1429    0.2894    1.5021 H   0  0  0  0  0  0  0  0  0  0  0  0
    1.4778   -0.2035    0.5142 H   0  0  0  0  0  0  0  0  0  0  0  0
    1.7501   -2.8109   -2.1278 H   0  0  0  0  0  0  0  0  0  0  0  0
    1.7916   -1.1572   -1.5567 H   0  0  0  0  0  0  0  0  0  0  0  0
    0.1040   -4.3916   -1.3747 H   0  0  0  0  0  0  0  0  0  0  0  0
   -3.7106   -4.3927    0.8094 H   0  0  0  0  0  0  0  0  0  0  0  0
   -3.4182   -3.3748    2.2241 H   0  0  0  0  0  0  0  0  0  0  0  0
   -4.2292   -2.7035    0.7754 H   0  0  0  0  0  0  0  0  0  0  0  0
   -1.0303    0.7564   -0.5606 H   0  0  0  0  0  0  0  0  0  0  0  0
    0.1110    1.7925   -0.1097 H   0  0  0  0  0  0  0  0  0  0  0  0
    2.3277   -2.5833    0.5488 H   0  0  0  0  0  0  0  0  0  0  0  0
  1  7  1  0  0  0  0
  2 10  1  0  0  0  0
  2 23  1  0  0  0  0
  3  9  4  0  0  0  0
  3 11  4  0  0  0  0
  4  8  1  0  0  0  0
  4 21  1  0  0  0  0
  4 22  1  0  0  0  0
  5  6  4  0  0  0  0
  5  7  4  0  0  0  0
  5  8  1  0  0  0  0
  6 10  1  0  0  0  0
  6 11  4  0  0  0  0
  7  9  4  0  0  0  0
  8 13  1  0  0  0  0
  8 14  1  0  0  0  0
  9 12  1  0  0  0  0
 10 15  1  0  0  0  0
 10 16  1  0  0  0  0
 11 17  1  0  0  0  0
 12 18  1  0  0  0  0
 12 19  1  0  0  0  0
 12 20  1  0  0  0  0
M  CHG  1   1  -1
M  END
>  <PUBCHEM_COMPOUND_CID>
1052

>  <PUBCHEM_COMPOUND_CANONICALIZED>
1

>  <PUBCHEM_CACTVS_COMPLEXITY>
143

>  <PUBCHEM_CACTVS_HBOND_ACCEPTOR>
4

>  <PUBCHEM_CACTVS_HBOND_DONOR>
3

>  <PUBCHEM_CACTVS_ROTATABLE_BOND>
2

>  <PUBCHEM_CACTVS_SUBSKEYS>
AAADccBzMAAAAAAAAAAAAAAAAAAAAAAAAAAsAAAAAAAAAAABgAAAHgAQCAAADAzhngYuhpJIEgCgAxRnRASCgCAxYCAA2KA9TJgKNmLSkZOEcAhmwBHY2AfwUAMOgAAAAAAAAAAAAAAAAAAAAAAAAAAAAA==

>  <PUBCHEM_IUPAC_OPENEYE_NAME>
4-(aminomethyl)-5-(hydroxymethyl)-2-methyl-pyridin-3-ol

>  <PUBCHEM_IUPAC_CAS_NAME>
4-(aminomethyl)-5-(hydroxymethyl)-2-methyl-3-pyridinol

>  <PUBCHEM_IUPAC_NAME>
4-(aminomethyl)-5-(hydroxymethyl)-2-methylpyridin-3-ol

>  <PUBCHEM_IUPAC_SYSTEMATIC_NAME>
4-(aminomethyl)-5-(hydroxymethyl)-2-methyl-pyridin-3-ol

>  <PUBCHEM_IUPAC_TRADITIONAL_NAME>
4-(aminomethyl)-2-methyl-5-methylol-pyridin-3-ol

>  <PUBCHEM_IUPAC_INCHI>
InChI=1S/C8H12N2O2/c1-5-8(12)7(2-9)6(4-11)3-10-5/h3,11-12H,2,4,9H2,1H3

>  <PUBCHEM_IUPAC_INCHIKEY>
NHZMQXZHNVQTQA-UHFFFAOYSA-N

>  <PUBCHEM_XLOGP3>
-1

>  <PUBCHEM_EXACT_MASS>
168.089878

>  <PUBCHEM_MOLECULAR_FORMULA>
C8H12N2O2

>  <PUBCHEM_MOLECULAR_WEIGHT>
168.19308

>  <PUBCHEM_OPENEYE_CAN_SMILES>
CC1=NC=C(C(=C1O)CN)CO

>  <PUBCHEM_OPENEYE_ISO_SMILES>
CC1=NC=C(C(=C1O)CN)CO

>  <PUBCHEM_CACTVS_TPSA>
79.4

>  <PUBCHEM_MONOISOTOPIC_WEIGHT>
168.089878

>  <PUBCHEM_TOTAL_CHARGE>
0

>  <PUBCHEM_HEAVY_ATOM_COUNT>
12

>  <PUBCHEM_ATOM_DEF_STEREO_COUNT>
0

>  <PUBCHEM_ATOM_UDEF_STEREO_COUNT>
0

>  <PUBCHEM_BOND_DEF_STEREO_COUNT>
0

>  <PUBCHEM_BOND_UDEF_STEREO_COUNT>
0

>  <PUBCHEM_ISOTOPIC_ATOM_COUNT>
0

>  <PUBCHEM_COMPONENT_COUNT>
1

>  <PUBCHEM_CACTVS_TAUTO_COUNT>
3

>  <PUBCHEM_COORDINATE_TYPE>
1
5
255

>  <PUBCHEM_BONDANNOTATIONS>
3  11  8
3  9  8
5  6  8
5  7  8
6  11  8
7  9  8

>  <id>
1052

>  <MMFF94 energy>
12.15

$$$$
